[TITLE]
ANYTOWN example

[JUNCTIONS]
 1                                    20.0000 ;
 2                                    50.0000 ;
 3                                    50.0000 ;
 4                                    50.0000 ;
 5                                    80.0000 ;
 6                                    80.0000 ;
 7                                    80.0000 ;
 8                                    80.0000 ;
 9                                   120.0000 ;
 10                                  120.0000 ;
 11                                  120.0000 ;
 12                                   50.0000 ;
 13                                   50.0000 ;
 14                                   50.0000 ;
 15                                   50.0000 ;
 16                                  120.0000 ;
 17                                  120.0000 ;
 18                                   50.0000 ;
 19                                   50.0000 ;
 20                                   20.0000 ;
 21                                   50.0000 ;
 22                                  120.0000 ;

[RESERVOIRS]
 40                                   10.0000  ;

[TANKS]
 41                                  215.0000      10.0000      10.0000      35.0000      32.6500    8372.5211  ;
 42                                  215.0000      10.0000      10.0000      35.0000      32.6500    8372.5211  ;

[PIPES]
 1                               1                               2                                 12000.0000      12.0000     120.0000       0.0000  ;Res
 2                               1                               12                                12000.0000      12.0000      70.0000       0.0000  ;city
 3                               1                               13                                12000.0000      16.0000      70.0000       0.0000  ;city
 4                               1                               20                                  100.0000      30.0000     130.0000       0.0000  ;city
 5                               2                               3                                  6000.0000      10.0000     120.0000       0.0000  ;Res
 6                               2                               4                                  9000.0000      10.0000     120.0000       0.0000  ;Res
 7                               2                               13                                 9000.0000      12.0000      70.0000       0.0000  ;Res
 8                               2                               14                                 6000.0000      10.0000     120.0000       0.0000  ;Res
 9                               3                               4                                  6000.0000      10.0000     120.0000       0.0000  ;Res
 11                              4                               8                                 12000.0000       8.0000     120.0000       0.0000  ;Res
 12                              4                               15                                 6000.0000      10.0000     120.0000       0.0000  ;Res
 17                              8                               9                                 12000.0000       8.0000     120.0000       0.0000  ;Res
 18                              8                               15                                 6000.0000      10.0000     120.0000       0.0000  ;Res
 19                              8                               16                                 6000.0000       8.0000     120.0000       0.0000  ;Res
 20                              8                               17                                 6000.0000       8.0000     120.0000       0.0000  ;Res
 21                              9                               10                                 6000.0000       8.0000     120.0000       0.0000  ;Res
 22                              10                              11                                 6000.0000       8.0000     120.0000       0.0000  ;Res
 23                              10                              17                                 6000.0000      10.0000     120.0000       0.0000  ;Res
 24                              11                              12                                 6000.0000       8.0000     120.0000       0.0000  ;Res
 26                              12                              17                                 6000.0000      10.0000     120.0000       0.0000  ;Res
 27                              12                              18                                 6000.0000       8.0000      70.0000       0.0000  ;city
 28                              13                              14                                 6000.0000      12.0000      70.0000       0.0000  ;city
 29                              13                              18                                 6000.0000      12.0000      70.0000       0.0000  ;city
 30                              13                              19                                 6000.0000      10.0000      70.0000       0.0000  ;city
 31                              14                              15                                 6000.0000      12.0000      70.0000       0.0000  ;city
 32                              14                              19                                 6000.0000      10.0000      70.0000       0.0000  ;city
 33                              14                              21                                  100.0000      12.0000     120.0000       0.0000  ;city
 34                              15                              16                                 6000.0000      10.0000      70.0000       0.0000  ;city
 35                              15                              19                                 6000.0000      10.0000      70.0000       0.0000  ;city
 36                              16                              17                                 6000.0000       8.0000     120.0000       0.0000  ;Res
 37                              16                              18                                 6000.0000      12.0000      70.0000       0.0000  ;city
 38                              16                              19                                 6000.0000      10.0000      70.0000       0.0000  ;city
 39                              17                              18                                 6000.0000       8.0000     120.0000       0.0000  ;Res
 40                              17                              22                                  100.0000      12.0000     120.0000       0.0000  ;Res
 41                              18                              19                                 6000.0000      10.0000      70.0000       0.0000  ;city
 142                             21                              41                                    1.0000      12.0000     120.0000       0.0000  ;city
 143                             22                              42                                    1.0000      12.0000     120.0000       0.0000  ;Res
 110                             4                               5                                  6000.0000       0.0001     130.0000       0.0000  ;New
 113                             5                               6                                  6000.0000       0.0001     130.0000       0.0000  ;New
 114                             6                               7                                  6000.0000       0.0001     130.0000       0.0000  ;New
 115                             6                               8                                  6000.0000       0.0001     130.0000       0.0000  ;New
 116                             7                               8                                  6000.0000       0.0001     130.0000       0.0000  ;New
 125                             11                              17                                 9000.0000       0.0001     130.0000       0.0000  ;New

[PUMPS]
 78                              40                              20                               HEAD 2   PATTERN  2 ;
 79                              40                              20                               HEAD 2   PATTERN  3 ;
 80                              40                              20                               HEAD 2   PATTERN  4 ;

[VALVES]

[DEMANDS]
 1                                   500.000000    1 ;
 2                                   200.000000    1 ;
 3                                   200.000000    1 ;
 4                                   600.000000    1 ;
 5                                   600.000000    1 ;
 6                                   600.000000    1 ;
 7                                   600.000000    1 ;
 8                                   400.000000    1 ;
 9                                   400.000000    1 ;
 10                                  400.000000    1 ;
 11                                  400.000000    1 ;
 12                                  500.000000    1 ;
 13                                  500.000000    1 ;
 14                                  500.000000    1 ;
 15                                  500.000000    1 ;
 16                                  400.000000    1 ;
 17                                 1000.000000    1 ;
 18                                  500.000000    1 ;
 19                                 1000.000000    1 ;
 20                                    0.000000    1 ;
 21                                    0.000000    1 ;
 22                                    0.000000    1 ;

[EMITTERS]

[STATUS]

[PATTERNS]
 1                                     1.0000       1.0000       1.0000       0.9000       0.9000       0.9000
 1                                     0.7000       0.7000       0.7000       0.6000       0.6000       0.6000
 1                                     1.2000       1.2000       1.2000       1.3000       1.3000       1.3000
 1                                     1.2000       1.2000       1.2000       1.1000       1.1000       1.1000
 2                                     0.0000       0.0000       0.0000       0.0000       0.0000       0.0000
 2                                     0.0000       0.0000       0.0000       0.0000       0.0000       0.0000
 2                                     0.0000       0.0000       0.0000       0.0000       0.0000       0.0000
 2                                     0.0000       0.0000       0.0000       0.0000       0.0000       0.0000
 3                                     0.0000       0.0000       0.0000       0.0000       0.0000       0.0000
 3                                     0.0000       0.0000       0.0000       0.0000       0.0000       0.0000
 3                                     0.0000       0.0000       0.0000       0.0000       0.0000       0.0000
 3                                     0.0000       0.0000       0.0000       0.0000       0.0000       0.0000
 4                                     0.0000       0.0000       0.0000       0.0000       0.0000       0.0000
 4                                     0.0000       0.0000       0.0000       0.0000       0.0000       0.0000
 4                                     0.0000       0.0000       0.0000       0.0000       0.0000       0.0000
 4                                     0.0000       0.0000       0.0000       0.0000       0.0000       0.0000

[CURVES]
 2                                     0.0000     300.0000
 2                                  2000.0000     292.0000
 2                                  4000.0000     270.0000
 2                                  6000.0000     230.0000
 2                                  8000.0000     181.0000
 E1                                    0.0000       0.0000
 E1                                 2000.0000      50.0000
 E1                                 4000.0000      65.0000
 E1                                 6000.0000      55.0000
 E1                                 8000.0000      40.0000

[CONTROLS]

[RULES]

[QUALITY]

[SOURCES]

[MIXING]
 41                              MIXED          1.0000
 42                              MIXED          1.0000

[REACTIONS]
 ORDER  BULK            1.00
 ORDER  WALL            1
 ORDER  TANK            1.00
 GLOBAL BULK            0.000000
 GLOBAL WALL            0.000000

[ENERGY]
 GLOBAL EFFIC        75.0000
 DEMAND CHARGE       0.0000
 PUMP 78                              EFFIC   E1
 PUMP 79                              EFFIC   E1
 PUMP 80                              EFFIC   E1

[TIMES]
 DURATION            24:00:00
 HYDRAULIC TIMESTEP  0:01:00
 QUALITY TIMESTEP    0:01:00
 REPORT TIMESTEP     1:00:00
 REPORT START        0:00:00
 PATTERN TIMESTEP    1:00:00
 PATTERN START       0:00:00
 RULE TIMESTEP       0:00:06
 START CLOCKTIME     18:00:00
 STATISTIC           NONE

[OPTIONS]
 UNITS               GPM
 PRESSURE            PSI
 HEADLOSS            H-W
 PATTERN             1
 UNBALANCED          STOP
 QUALITY             NONE
 DEMAND MULTIPLIER   1.0000
 EMITTER EXPONENT    0.5000
 VISCOSITY           1.000000
 DIFFUSIVITY         1.000000
 SPECIFIC GRAVITY    1.000000
 TRIALS              200
 ACCURACY            0.00100000
 TOLERANCE           0.01000000
 CHECKFREQ           2
 MAXCHECK            10
 DAMPLIMIT           0.00000000

[REPORT]
 PAGESIZE            0
 STATUS              NO
 SUMMARY             YES
 ENERGY              NO
 MESSAGES            YES
 NODES               NONE
 LINKS               NONE
 Elevation           NO
 Demand              PRECISION 2
 Head                PRECISION 2
 Pressure            PRECISION 2
 Quality             NO
 Length              NO
 Diameter            NO
 Flow                PRECISION 2
 Velocity            PRECISION 2
 Headloss            PRECISION 2
 Quality             NO
 State               NO
 Setting             NO
 Reaction            NO



[COORDINATES]
 1                                  7682.330000    3371.150000
 2                                  7633.710000    5737.440000
 3                                  7520.260000    7293.350000
 4                                  6175.040000    7568.880000
 5                                  5591.570000    8460.290000
 6                                  4100.490000    8071.310000
 7                                  3192.870000    7763.370000
 8                                  3321.190000    6696.550000
 9                                  1305.620000    4850.970000
 10                                 2317.450000    3588.200000
 11                                 3701.630000    2892.060000
 12                                 4846.030000    3354.940000
 13                                 6450.570000    4424.640000
 14                                 6466.770000    5769.850000
 15                                 5094.450000    6482.090000
 16                                 4017.860000    5615.960000
 17                                 3005.490000    4292.430000
 18                                 4846.030000    4440.840000
 19                                 5332.250000    5332.250000
 20                                 8544.180000    3371.150000
 21                                 6094.000000    6499.190000
 22                                 2422.680000    4519.090000
 40                                 8700.600000    3371.150000
 41                                 6094.000000    6600.190000
 42                                 2422.680000    4700.090000


[END]
